*Heading
** Job name: Job-1 Model name: Model-1
** Generated by: Abaqus/CAE 2022
*Preprint, echo=NO, model=NO, history=NO, contact=NO
**
** PARTS
**
*Part, name=Part-1
*Node
      1,  0.100000001,  0.100000001,           1.
      2,  0.100000001, 0.0666666701,           1.
      3,  0.100000001, 0.0333333351,           1.
      4,  0.100000001,           0.,           1.
      5,  0.100000001,  0.100000001,  0.899999976
      6,  0.100000001, 0.0666666701,  0.899999976
      7,  0.100000001, 0.0333333351,  0.899999976
      8,  0.100000001,           0.,  0.899999976
      9,  0.100000001,  0.100000001,  0.800000012
     10,  0.100000001, 0.0666666701,  0.800000012
     11,  0.100000001, 0.0333333351,  0.800000012
     12,  0.100000001,           0.,  0.800000012
     13,  0.100000001,  0.100000001,  0.699999988
     14,  0.100000001, 0.0666666701,  0.699999988
     15,  0.100000001, 0.0333333351,  0.699999988
     16,  0.100000001,           0.,  0.699999988
     17,  0.100000001,  0.100000001,  0.600000024
     18,  0.100000001, 0.0666666701,  0.600000024
     19,  0.100000001, 0.0333333351,  0.600000024
     20,  0.100000001,           0.,  0.600000024
** ... 156 like lines cut
*Element, type=C3D8R
 1,  45,  46,  50,  49,   1,   2,   6,   5
 2,  46,  47,  51,  50,   2,   3,   7,   6
 3,  47,  48,  52,  51,   3,   4,   8,   7
 4,  49,  50,  54,  53,   5,   6,  10,   9
 5,  50,  51,  55,  54,   6,   7,  11,  10
 6,  51,  52,  56,  55,   7,   8,  12,  11
 7,  53,  54,  58,  57,   9,  10,  14,  13
 8,  54,  55,  59,  58,  10,  11,  15,  14
 9,  55,  56,  60,  59,  11,  12,  16,  15
10,  57,  58,  62,  61,  13,  14,  18,  17
11,  58,  59,  63,  62,  14,  15,  19,  18
12,  59,  60,  64,  63,  15,  16,  20,  19
13,  61,  62,  66,  65,  17,  18,  22,  21
14,  62,  63,  67,  66,  18,  19,  23,  22
15,  63,  64,  68,  67,  19,  20,  24,  23
16,  65,  66,  70,  69,  21,  22,  26,  25
17,  66,  67,  71,  70,  22,  23,  27,  26
18,  67,  68,  72,  71,  23,  24,  28,  27
19,  69,  70,  74,  73,  25,  26,  30,  29
20,  70,  71,  75,  74,  26,  27,  31,  30
** ... 70 like lines cut
*Nset, nset=Set-1, generate
   1,  176,    1
*Elset, elset=Set-1, generate
  1,  90,   1
** Section: Section-1
*Solid Section, elset=Set-1, material=Material-2
,
*End Part
**  
**
** ASSEMBLY
**
*Assembly, name=Assembly
**  
*Instance, name=Part-1-1, part=Part-1
*End Instance
**  
*Nset, nset=Set-1, instance=Part-1-1
   1,   2,   3,   4,  45,  46,  47,  48,  89,  90,  91,  92, 133, 134, 135, 136
*Elset, elset=Set-1, instance=Part-1-1
  1,  2,  3, 31, 32, 33, 61, 62, 63
*Nset, nset=Set-2, instance=Part-1-1, generate
 133,  176,    1
*Elset, elset=Set-2, instance=Part-1-1, generate
 61,  90,   1
*Nset, nset=Set-3, instance=Part-1-1, generate
   4,  176,    4
*Elset, elset=Set-3, instance=Part-1-1, generate
  3,  90,   3
*Nset, nset=Set-4, instance=Part-1-1
  41,  42,  43,  44,  85,  86,  87,  88, 129, 130, 131, 132, 173, 174, 175, 176
*Elset, elset=Set-4, instance=Part-1-1
 28, 29, 30, 58, 59, 60, 88, 89, 90
*Elset, elset=_Surf-1_S5, internal, instance=Part-1-1
 28, 29, 30, 58, 59, 60, 88, 89, 90
*Surface, type=ELEMENT, name=Surf-1
_Surf-1_S5, S5
*End Assembly
*Amplitude, name=Amp-1
             0.,              0.,         0.00018,              1.
** 
** MATERIALS
** 
*Material, name=Material-1
*Density
7800.,
*Hyperelastic, neo hooke
 3.846e+10, 8.375e+10
*Material, name=Material-2
*Density
7800.,
*Elastic
 2e+11, 0.3
** 
** BOUNDARY CONDITIONS
** 
** Name: BC-1 Type: Displacement/Rotation
*Boundary
Set-1, 3, 3
Set-1, 4, 4
Set-1, 5, 5
Set-1, 6, 6
** Name: BC-2 Type: Displacement/Rotation
*Boundary
Set-2, 1, 1
** Name: BC-3 Type: Displacement/Rotation
*Boundary
Set-3, 2, 2
** ----------------------------------------------------------------
** 
** STEP: Step-1
** 
*Step, name=Step-1, nlgeom=YES
*Dynamic, Explicit
, 0.00018
*Bulk Viscosity
0.06, 1.2
** 
** BOUNDARY CONDITIONS
** 
** Name: BC-1 Type: Displacement/Rotation
*Boundary, op=NEW
Set-1, 3, 3
** Name: BC-2 Type: Displacement/Rotation
*Boundary, op=NEW
Set-2, 1, 1
** Name: BC-3 Type: Displacement/Rotation
*Boundary, op=NEW
Set-3, 2, 2
** Name: BC-4 Type: Displacement/Rotation
*Boundary, op=NEW, amplitude=Amp-1
Set-4, 3, 3, -0.001
** 
** OUTPUT REQUESTS
** 
*Restart, write, number interval=1, time marks=NO
** 
** FIELD OUTPUT: F-Output-1
** 
*Output, field
*Node Output
A, RF, U, V
*Element Output, directions=YES
E, ER, EVF, LE, NE, PE, PEEQ, PEEQVAVG, PEVAVG, S, SVAVG
*Contact Output
CSTRESS, 
** 
** HISTORY OUTPUT: H-Output-1
** 
*Output, history, variable=PRESELECT
*End Step
