*Heading
** Job name: Job-1 Model name: Model-1
** Generated by: Abaqus/CAE 2022
*Preprint, echo=NO, model=NO, history=NO, contact=NO
**
** PARTS
**
*Part, name=Part-1
*Node
      1,  0.100000001,  0.100000001,           1.
      2,  0.100000001, 0.0500000007,           1.
      3,  0.100000001,           0.,           1.
      4,  0.100000001,  0.100000001,  0.899999976
      5,  0.100000001, 0.0500000007,  0.899999976
      6,  0.100000001,           0.,  0.899999976
      7,  0.100000001,  0.100000001,  0.800000012
      8,  0.100000001, 0.0500000007,  0.800000012
      9,  0.100000001,           0.,  0.800000012
     10,  0.100000001,  0.100000001,  0.699999988
     11,  0.100000001, 0.0500000007,  0.699999988
     12,  0.100000001,           0.,  0.699999988
     13,  0.100000001,  0.100000001,  0.600000024
     14,  0.100000001, 0.0500000007,  0.600000024
     15,  0.100000001,           0.,  0.600000024
     16,  0.100000001,  0.100000001,          0.5
     17,  0.100000001, 0.0500000007,          0.5
     18,  0.100000001,           0.,          0.5
     19,  0.100000001,  0.100000001,  0.400000006
     20,  0.100000001, 0.0500000007,  0.400000006
** ... 79 like lines cut
*Element, type=C3D8R
 1, 34, 35, 38, 37,  1,  2,  5,  4
 2, 35, 36, 39, 38,  2,  3,  6,  5
 3, 37, 38, 41, 40,  4,  5,  8,  7
 4, 38, 39, 42, 41,  5,  6,  9,  8
 5, 40, 41, 44, 43,  7,  8, 11, 10
 6, 41, 42, 45, 44,  8,  9, 12, 11
 7, 43, 44, 47, 46, 10, 11, 14, 13
 8, 44, 45, 48, 47, 11, 12, 15, 14
 9, 46, 47, 50, 49, 13, 14, 17, 16
10, 47, 48, 51, 50, 14, 15, 18, 17
11, 49, 50, 53, 52, 16, 17, 20, 19
12, 50, 51, 54, 53, 17, 18, 21, 20
13, 52, 53, 56, 55, 19, 20, 23, 22
14, 53, 54, 57, 56, 20, 21, 24, 23
15, 55, 56, 59, 58, 22, 23, 26, 25
16, 56, 57, 60, 59, 23, 24, 27, 26
17, 58, 59, 62, 61, 25, 26, 29, 28
18, 59, 60, 63, 62, 26, 27, 30, 29
19, 61, 62, 65, 64, 28, 29, 32, 31
20, 62, 63, 66, 65, 29, 30, 33, 32
** ... 20 like lines cut
*Nset, nset=Set-1, generate
  1,  99,   1
*Elset, elset=Set-1, generate
  1,  40,   1
** Section: Section-1
*Solid Section, elset=Set-1, material=Material-1
,
*End Part
**  
**
** ASSEMBLY
**
*Assembly, name=Assembly
**  
*Instance, name=Part-1-1, part=Part-1
*End Instance
**  
*Nset, nset=Set-1, instance=Part-1-1
  1,  2,  3, 34, 35, 36, 67, 68, 69
*Elset, elset=Set-1, instance=Part-1-1
  1,  2, 21, 22
*Nset, nset=Set-2, instance=Part-1-1
 31, 32, 33, 64, 65, 66, 97, 98, 99
*Elset, elset=Set-2, instance=Part-1-1
 19, 20, 39, 40
*End Assembly
*Amplitude, name=Amp-1
             0.,              0.,         0.00018,              1.
** 
** MATERIALS
** 
*Material, name=Material-1
*Density
7800.,
*Elastic
 2e+11, 0.3
** 
** BOUNDARY CONDITIONS
** 
** Name: BC-1 Type: Displacement/Rotation
*Boundary
Set-1, 3, 3
** ----------------------------------------------------------------
** 
** STEP: Step-1
** 
*Step, name=Step-1, nlgeom=YES
*Dynamic, Explicit
, 0.00018
*Bulk Viscosity
0.06, 1.2
** 
** BOUNDARY CONDITIONS
** 
** Name: BC-2 Type: Displacement/Rotation
*Boundary, amplitude=Amp-1
Set-2, 3, 3, -0.01
** 
** OUTPUT REQUESTS
** 
*Restart, write, number interval=1, time marks=NO
** 
** FIELD OUTPUT: F-Output-1
** 
*Output, field, variable=PRESELECT
** 
** HISTORY OUTPUT: H-Output-1
** 
*Output, history, variable=PRESELECT
*End Step
