 Abaqus/Standard 3DEXPERIENCE R2017x                  DATE 06-Feb-2019 TIME 12:15:35
 SUMMARY OF JOB INFORMATION:
 STEP  INC ATT SEVERE EQUIL TOTAL  TOTAL      STEP       INC OF       DOF    IF
               DISCON ITERS ITERS  TIME/    TIME/LPF    TIME/LPF    MONITOR RIKS
               ITERS               FREQ
   1     1   1     0     2     2  0.200      0.200      0.2000    
   1     2   1     0     1     1  0.400      0.400      0.2000    
   1     3   1     0     1     1  0.600      0.600      0.2000    
   1     4   1     0     1     1  0.800      0.800      0.2000    
   1     5   1     0     1     1  1.00       1.00       0.2000    
                          
 THE ANALYSIS HAS COMPLETED SUCCESSFULLY
