 Abaqus/Standard 3DEXPERIENCE R2017x                  DATE 25-Jan-2018 TIME 19:27:19
 SUMMARY OF JOB INFORMATION:
 STEP  INC ATT SEVERE EQUIL TOTAL  TOTAL      STEP       INC OF       DOF    IF
               DISCON ITERS ITERS  TIME/    TIME/LPF    TIME/LPF    MONITOR RIKS
               ITERS               FREQ
   1     1   1     0     2     2  0.250      0.250      0.2500    
   1     2   1     0     1     1  0.500      0.500      0.2500    
   1     3   1     0     1     1  0.750      0.750      0.2500    
   1     4   1     0     1     1  1.00       1.00       0.2500    
                          
 THE ANALYSIS HAS COMPLETED SUCCESSFULLY
